
---------- Begin Simulation Statistics ----------
sim_seconds                                  0.045243                       # Number of seconds simulated
sim_ticks                                 45242646000                       # Number of ticks simulated
final_tick                                45242646000                       # Number of ticks from beginning of simulation (restored from checkpoints and never reset)
sim_freq                                 1000000000000                       # Frequency of simulated ticks
host_inst_rate                                 387620                       # Simulator instruction rate (inst/s)
host_op_rate                                   657782                       # Simulator op (including micro ops) rate (op/s)
host_tick_rate                              624888105                       # Simulator tick rate (ticks/s)
host_mem_usage                                 668360                       # Number of bytes of host memory used
host_seconds                                    72.40                       # Real time elapsed on the host
sim_insts                                    28064147                       # Number of instructions simulated
sim_ops                                      47624178                       # Number of ops (including micro ops) simulated
system.voltage_domain.voltage                       1                       # Voltage in Volts
system.clk_domain.clock                          1000                       # Clock period in ticks
system.mem_ctrls.pwrStateResidencyTicks::UNDEFINED  45242646000                       # Cumulative time (in ticks) in various power states
system.mem_ctrls.bytes_read::cpu.inst           22656                       # Number of bytes read from this memory
system.mem_ctrls.bytes_read::cpu.data          749376                       # Number of bytes read from this memory
system.mem_ctrls.bytes_read::total             772032                       # Number of bytes read from this memory
system.mem_ctrls.bytes_inst_read::cpu.inst        22656                       # Number of instructions bytes read from this memory
system.mem_ctrls.bytes_inst_read::total         22656                       # Number of instructions bytes read from this memory
system.mem_ctrls.bytes_written::writebacks       377600                       # Number of bytes written to this memory
system.mem_ctrls.bytes_written::total          377600                       # Number of bytes written to this memory
system.mem_ctrls.num_reads::cpu.inst              354                       # Number of read requests responded to by this memory
system.mem_ctrls.num_reads::cpu.data            11709                       # Number of read requests responded to by this memory
system.mem_ctrls.num_reads::total               12063                       # Number of read requests responded to by this memory
system.mem_ctrls.num_writes::writebacks          5900                       # Number of write requests responded to by this memory
system.mem_ctrls.num_writes::total               5900                       # Number of write requests responded to by this memory
system.mem_ctrls.bw_read::cpu.inst             500766                       # Total read bandwidth from this memory (bytes/s)
system.mem_ctrls.bw_read::cpu.data           16563487                       # Total read bandwidth from this memory (bytes/s)
system.mem_ctrls.bw_read::total              17064254                       # Total read bandwidth from this memory (bytes/s)
system.mem_ctrls.bw_inst_read::cpu.inst        500766                       # Instruction read bandwidth from this memory (bytes/s)
system.mem_ctrls.bw_inst_read::total           500766                       # Instruction read bandwidth from this memory (bytes/s)
system.mem_ctrls.bw_write::writebacks         8346108                       # Write bandwidth from this memory (bytes/s)
system.mem_ctrls.bw_write::total              8346108                       # Write bandwidth from this memory (bytes/s)
system.mem_ctrls.bw_total::writebacks         8346108                       # Total bandwidth to/from this memory (bytes/s)
system.mem_ctrls.bw_total::cpu.inst            500766                       # Total bandwidth to/from this memory (bytes/s)
system.mem_ctrls.bw_total::cpu.data          16563487                       # Total bandwidth to/from this memory (bytes/s)
system.mem_ctrls.bw_total::total             25410362                       # Total bandwidth to/from this memory (bytes/s)
system.pwrStateResidencyTicks::UNDEFINED  45242646000                       # Cumulative time (in ticks) in various power states
system.cpu_voltage_domain.voltage                   1                       # Voltage in Volts
system.cpu_clk_domain.clock                       500                       # Clock period in ticks
system.cpu.dtb.walker.pwrStateResidencyTicks::UNDEFINED  45242646000                       # Cumulative time (in ticks) in various power states
system.cpu.dtb.rdAccesses                     4488681                       # TLB accesses on read requests
system.cpu.dtb.wrAccesses                     2193959                       # TLB accesses on write requests
system.cpu.dtb.rdMisses                           166                       # TLB misses on read requests
system.cpu.dtb.wrMisses                           107                       # TLB misses on write requests
system.cpu.apic_clk_domain.clock                 8000                       # Clock period in ticks
system.cpu.interrupts.pwrStateResidencyTicks::UNDEFINED  45242646000                       # Cumulative time (in ticks) in various power states
system.cpu.itb.walker.pwrStateResidencyTicks::UNDEFINED  45242646000                       # Cumulative time (in ticks) in various power states
system.cpu.itb.rdAccesses                           0                       # TLB accesses on read requests
system.cpu.itb.wrAccesses                    35206240                       # TLB accesses on write requests
system.cpu.itb.rdMisses                             0                       # TLB misses on read requests
system.cpu.itb.wrMisses                            35                       # TLB misses on write requests
system.cpu.workload.numSyscalls                     9                       # Number of system calls
system.cpu.pwrStateResidencyTicks::ON     45242646000                       # Cumulative time (in ticks) in various power states
system.cpu.numCycles                         90485292                       # number of cpu cycles simulated
system.cpu.numWorkItemsStarted                      0                       # number of work items this cpu started
system.cpu.numWorkItemsCompleted                    0                       # number of work items this cpu completed
system.cpu.committedInsts                    28064147                       # Number of instructions committed
system.cpu.committedOps                      47624178                       # Number of ops (including micro ops) committed
system.cpu.num_int_alu_accesses              47536491                       # Number of integer alu accesses
system.cpu.num_fp_alu_accesses                   1975                       # Number of float alu accesses
system.cpu.num_vec_alu_accesses                     0                       # Number of vector alu accesses
system.cpu.num_func_calls                      772572                       # number of times a function call or return occured
system.cpu.num_conditional_control_insts      4056706                       # number of instructions that are conditional controls
system.cpu.num_int_insts                     47536491                       # number of integer instructions
system.cpu.num_fp_insts                          1975                       # number of float instructions
system.cpu.num_vec_insts                            0                       # number of vector instructions
system.cpu.num_int_register_reads            90177659                       # number of times the integer registers were read
system.cpu.num_int_register_writes           39127149                       # number of times the integer registers were written
system.cpu.num_fp_register_reads                 3787                       # number of times the floating registers were read
system.cpu.num_fp_register_writes                1492                       # number of times the floating registers were written
system.cpu.num_vec_register_reads                   0                       # number of times the vector registers were read
system.cpu.num_vec_register_writes                  0                       # number of times the vector registers were written
system.cpu.num_cc_register_reads             22557891                       # number of times the CC registers were read
system.cpu.num_cc_register_writes            16666268                       # number of times the CC registers were written
system.cpu.num_mem_refs                       6682634                       # number of memory refs
system.cpu.num_load_insts                     4488676                       # Number of load instructions
system.cpu.num_store_insts                    2193958                       # Number of store instructions
system.cpu.num_idle_cycles                          0                       # Number of idle cycles
system.cpu.num_busy_cycles                   90485292                       # Number of busy cycles
system.cpu.not_idle_fraction                        1                       # Percentage of non-idle cycles
system.cpu.idle_fraction                            0                       # Percentage of idle cycles
system.cpu.Branches                           6415422                       # Number of branches fetched
system.cpu.op_class::No_OpClass                 86266      0.18%      0.18% # Class of executed instruction
system.cpu.op_class::IntAlu                  40654300     85.36%     85.55% # Class of executed instruction
system.cpu.op_class::IntMult                   200004      0.42%     85.97% # Class of executed instruction
system.cpu.op_class::IntDiv                        14      0.00%     85.97% # Class of executed instruction
system.cpu.op_class::FloatAdd                      10      0.00%     85.97% # Class of executed instruction
system.cpu.op_class::FloatCmp                       0      0.00%     85.97% # Class of executed instruction
system.cpu.op_class::FloatCvt                       0      0.00%     85.97% # Class of executed instruction
system.cpu.op_class::FloatMult                      0      0.00%     85.97% # Class of executed instruction
system.cpu.op_class::FloatMultAcc                   0      0.00%     85.97% # Class of executed instruction
system.cpu.op_class::FloatDiv                       0      0.00%     85.97% # Class of executed instruction
system.cpu.op_class::FloatMisc                      0      0.00%     85.97% # Class of executed instruction
system.cpu.op_class::FloatSqrt                      0      0.00%     85.97% # Class of executed instruction
system.cpu.op_class::SimdAdd                      374      0.00%     85.97% # Class of executed instruction
system.cpu.op_class::SimdAddAcc                     0      0.00%     85.97% # Class of executed instruction
system.cpu.op_class::SimdAlu                       68      0.00%     85.97% # Class of executed instruction
system.cpu.op_class::SimdCmp                        0      0.00%     85.97% # Class of executed instruction
system.cpu.op_class::SimdCvt                      108      0.00%     85.97% # Class of executed instruction
system.cpu.op_class::SimdMisc                     214      0.00%     85.97% # Class of executed instruction
system.cpu.op_class::SimdMult                       0      0.00%     85.97% # Class of executed instruction
system.cpu.op_class::SimdMultAcc                    0      0.00%     85.97% # Class of executed instruction
system.cpu.op_class::SimdShift                    186      0.00%     85.97% # Class of executed instruction
system.cpu.op_class::SimdShiftAcc                   0      0.00%     85.97% # Class of executed instruction
system.cpu.op_class::SimdSqrt                       0      0.00%     85.97% # Class of executed instruction
system.cpu.op_class::SimdFloatAdd                   0      0.00%     85.97% # Class of executed instruction
system.cpu.op_class::SimdFloatAlu                   0      0.00%     85.97% # Class of executed instruction
system.cpu.op_class::SimdFloatCmp                   0      0.00%     85.97% # Class of executed instruction
system.cpu.op_class::SimdFloatCvt                   0      0.00%     85.97% # Class of executed instruction
system.cpu.op_class::SimdFloatDiv                   0      0.00%     85.97% # Class of executed instruction
system.cpu.op_class::SimdFloatMisc                  0      0.00%     85.97% # Class of executed instruction
system.cpu.op_class::SimdFloatMult                  0      0.00%     85.97% # Class of executed instruction
system.cpu.op_class::SimdFloatMultAcc               0      0.00%     85.97% # Class of executed instruction
system.cpu.op_class::SimdFloatSqrt                  0      0.00%     85.97% # Class of executed instruction
system.cpu.op_class::MemRead                  4488608      9.43%     95.39% # Class of executed instruction
system.cpu.op_class::MemWrite                 2193523      4.61%    100.00% # Class of executed instruction
system.cpu.op_class::FloatMemRead                  68      0.00%    100.00% # Class of executed instruction
system.cpu.op_class::FloatMemWrite                435      0.00%    100.00% # Class of executed instruction
system.cpu.op_class::IprAccess                      0      0.00%    100.00% # Class of executed instruction
system.cpu.op_class::InstPrefetch                   0      0.00%    100.00% # Class of executed instruction
system.cpu.op_class::total                   47624178                       # Class of executed instruction
system.cpu.dcache.tags.pwrStateResidencyTicks::UNDEFINED  45242646000                       # Cumulative time (in ticks) in various power states
system.cpu.dcache.tags.tagsinuse           508.212880                       # Cycle average of tags in use
system.cpu.dcache.tags.total_refs             6682640                       # Total number of references to valid blocks.
system.cpu.dcache.tags.sampled_refs             45168                       # Sample count of references to valid blocks.
system.cpu.dcache.tags.avg_refs            147.950762                       # Average number of references to valid blocks.
system.cpu.dcache.tags.warmup_cycle            759000                       # Cycle when the warmup percentage was hit.
system.cpu.dcache.tags.occ_blocks::cpu.data   508.212880                       # Average occupied blocks per requestor
system.cpu.dcache.tags.occ_percent::cpu.data     0.992603                       # Average percentage of cache occupancy
system.cpu.dcache.tags.occ_percent::total     0.992603                       # Average percentage of cache occupancy
system.cpu.dcache.tags.occ_task_id_blocks::1024          512                       # Occupied blocks per task id
system.cpu.dcache.tags.age_task_id_blocks_1024::0           11                       # Occupied blocks per task id
system.cpu.dcache.tags.age_task_id_blocks_1024::1           15                       # Occupied blocks per task id
system.cpu.dcache.tags.age_task_id_blocks_1024::2          156                       # Occupied blocks per task id
system.cpu.dcache.tags.age_task_id_blocks_1024::3          330                       # Occupied blocks per task id
system.cpu.dcache.tags.occ_task_id_percent::1024            1                       # Percentage of cache occupancy per task id
system.cpu.dcache.tags.tag_accesses          13410448                       # Number of tag accesses
system.cpu.dcache.tags.data_accesses         13410448                       # Number of data accesses
system.cpu.dcache.pwrStateResidencyTicks::UNDEFINED  45242646000                       # Cumulative time (in ticks) in various power states
system.cpu.dcache.ReadReq_hits::cpu.data      4450112                       # number of ReadReq hits
system.cpu.dcache.ReadReq_hits::total         4450112                       # number of ReadReq hits
system.cpu.dcache.WriteReq_hits::cpu.data      2176125                       # number of WriteReq hits
system.cpu.dcache.WriteReq_hits::total        2176125                       # number of WriteReq hits
system.cpu.dcache.demand_hits::cpu.data       6626237                       # number of demand (read+write) hits
system.cpu.dcache.demand_hits::total          6626237                       # number of demand (read+write) hits
system.cpu.dcache.overall_hits::cpu.data      6626237                       # number of overall hits
system.cpu.dcache.overall_hits::total         6626237                       # number of overall hits
system.cpu.dcache.ReadReq_misses::cpu.data        38569                       # number of ReadReq misses
system.cpu.dcache.ReadReq_misses::total         38569                       # number of ReadReq misses
system.cpu.dcache.WriteReq_misses::cpu.data        17834                       # number of WriteReq misses
system.cpu.dcache.WriteReq_misses::total        17834                       # number of WriteReq misses
system.cpu.dcache.demand_misses::cpu.data        56403                       # number of demand (read+write) misses
system.cpu.dcache.demand_misses::total          56403                       # number of demand (read+write) misses
system.cpu.dcache.overall_misses::cpu.data        56403                       # number of overall misses
system.cpu.dcache.overall_misses::total         56403                       # number of overall misses
system.cpu.dcache.ReadReq_miss_latency::cpu.data   2683761500                       # number of ReadReq miss cycles
system.cpu.dcache.ReadReq_miss_latency::total   2683761500                       # number of ReadReq miss cycles
system.cpu.dcache.WriteReq_miss_latency::cpu.data    655932500                       # number of WriteReq miss cycles
system.cpu.dcache.WriteReq_miss_latency::total    655932500                       # number of WriteReq miss cycles
system.cpu.dcache.demand_miss_latency::cpu.data   3339694000                       # number of demand (read+write) miss cycles
system.cpu.dcache.demand_miss_latency::total   3339694000                       # number of demand (read+write) miss cycles
system.cpu.dcache.overall_miss_latency::cpu.data   3339694000                       # number of overall miss cycles
system.cpu.dcache.overall_miss_latency::total   3339694000                       # number of overall miss cycles
system.cpu.dcache.ReadReq_accesses::cpu.data      4488681                       # number of ReadReq accesses(hits+misses)
system.cpu.dcache.ReadReq_accesses::total      4488681                       # number of ReadReq accesses(hits+misses)
system.cpu.dcache.WriteReq_accesses::cpu.data      2193959                       # number of WriteReq accesses(hits+misses)
system.cpu.dcache.WriteReq_accesses::total      2193959                       # number of WriteReq accesses(hits+misses)
system.cpu.dcache.demand_accesses::cpu.data      6682640                       # number of demand (read+write) accesses
system.cpu.dcache.demand_accesses::total      6682640                       # number of demand (read+write) accesses
system.cpu.dcache.overall_accesses::cpu.data      6682640                       # number of overall (read+write) accesses
system.cpu.dcache.overall_accesses::total      6682640                       # number of overall (read+write) accesses
system.cpu.dcache.ReadReq_miss_rate::cpu.data     0.008593                       # miss rate for ReadReq accesses
system.cpu.dcache.ReadReq_miss_rate::total     0.008593                       # miss rate for ReadReq accesses
system.cpu.dcache.WriteReq_miss_rate::cpu.data     0.008129                       # miss rate for WriteReq accesses
system.cpu.dcache.WriteReq_miss_rate::total     0.008129                       # miss rate for WriteReq accesses
system.cpu.dcache.demand_miss_rate::cpu.data     0.008440                       # miss rate for demand accesses
system.cpu.dcache.demand_miss_rate::total     0.008440                       # miss rate for demand accesses
system.cpu.dcache.overall_miss_rate::cpu.data     0.008440                       # miss rate for overall accesses
system.cpu.dcache.overall_miss_rate::total     0.008440                       # miss rate for overall accesses
system.cpu.dcache.ReadReq_avg_miss_latency::cpu.data 69583.383028                       # average ReadReq miss latency
system.cpu.dcache.ReadReq_avg_miss_latency::total 69583.383028                       # average ReadReq miss latency
system.cpu.dcache.WriteReq_avg_miss_latency::cpu.data 36779.886733                       # average WriteReq miss latency
system.cpu.dcache.WriteReq_avg_miss_latency::total 36779.886733                       # average WriteReq miss latency
system.cpu.dcache.demand_avg_miss_latency::cpu.data 59211.283088                       # average overall miss latency
system.cpu.dcache.demand_avg_miss_latency::total 59211.283088                       # average overall miss latency
system.cpu.dcache.overall_avg_miss_latency::cpu.data 59211.283088                       # average overall miss latency
system.cpu.dcache.overall_avg_miss_latency::total 59211.283088                       # average overall miss latency
system.cpu.dcache.blocked_cycles::no_mshrs            0                       # number of cycles access was blocked
system.cpu.dcache.blocked_cycles::no_targets            0                       # number of cycles access was blocked
system.cpu.dcache.blocked::no_mshrs                 0                       # number of cycles access was blocked
system.cpu.dcache.blocked::no_targets               0                       # number of cycles access was blocked
system.cpu.dcache.avg_blocked_cycles::no_mshrs          nan                       # average number of cycles each access was blocked
system.cpu.dcache.avg_blocked_cycles::no_targets          nan                       # average number of cycles each access was blocked
system.cpu.dcache.writebacks::writebacks        43168                       # number of writebacks
system.cpu.dcache.writebacks::total             43168                       # number of writebacks
system.cpu.dcache.ReadReq_mshr_misses::cpu.data        38569                       # number of ReadReq MSHR misses
system.cpu.dcache.ReadReq_mshr_misses::total        38569                       # number of ReadReq MSHR misses
system.cpu.dcache.WriteReq_mshr_misses::cpu.data        17834                       # number of WriteReq MSHR misses
system.cpu.dcache.WriteReq_mshr_misses::total        17834                       # number of WriteReq MSHR misses
system.cpu.dcache.demand_mshr_misses::cpu.data        56403                       # number of demand (read+write) MSHR misses
system.cpu.dcache.demand_mshr_misses::total        56403                       # number of demand (read+write) MSHR misses
system.cpu.dcache.overall_mshr_misses::cpu.data        56403                       # number of overall MSHR misses
system.cpu.dcache.overall_mshr_misses::total        56403                       # number of overall MSHR misses
system.cpu.dcache.ReadReq_mshr_miss_latency::cpu.data   2645192500                       # number of ReadReq MSHR miss cycles
system.cpu.dcache.ReadReq_mshr_miss_latency::total   2645192500                       # number of ReadReq MSHR miss cycles
system.cpu.dcache.WriteReq_mshr_miss_latency::cpu.data    638098500                       # number of WriteReq MSHR miss cycles
system.cpu.dcache.WriteReq_mshr_miss_latency::total    638098500                       # number of WriteReq MSHR miss cycles
system.cpu.dcache.demand_mshr_miss_latency::cpu.data   3283291000                       # number of demand (read+write) MSHR miss cycles
system.cpu.dcache.demand_mshr_miss_latency::total   3283291000                       # number of demand (read+write) MSHR miss cycles
system.cpu.dcache.overall_mshr_miss_latency::cpu.data   3283291000                       # number of overall MSHR miss cycles
system.cpu.dcache.overall_mshr_miss_latency::total   3283291000                       # number of overall MSHR miss cycles
system.cpu.dcache.ReadReq_mshr_miss_rate::cpu.data     0.008593                       # mshr miss rate for ReadReq accesses
system.cpu.dcache.ReadReq_mshr_miss_rate::total     0.008593                       # mshr miss rate for ReadReq accesses
system.cpu.dcache.WriteReq_mshr_miss_rate::cpu.data     0.008129                       # mshr miss rate for WriteReq accesses
system.cpu.dcache.WriteReq_mshr_miss_rate::total     0.008129                       # mshr miss rate for WriteReq accesses
system.cpu.dcache.demand_mshr_miss_rate::cpu.data     0.008440                       # mshr miss rate for demand accesses
system.cpu.dcache.demand_mshr_miss_rate::total     0.008440                       # mshr miss rate for demand accesses
system.cpu.dcache.overall_mshr_miss_rate::cpu.data     0.008440                       # mshr miss rate for overall accesses
system.cpu.dcache.overall_mshr_miss_rate::total     0.008440                       # mshr miss rate for overall accesses
system.cpu.dcache.ReadReq_avg_mshr_miss_latency::cpu.data 68583.383028                       # average ReadReq mshr miss latency
system.cpu.dcache.ReadReq_avg_mshr_miss_latency::total 68583.383028                       # average ReadReq mshr miss latency
system.cpu.dcache.WriteReq_avg_mshr_miss_latency::cpu.data 35779.886733                       # average WriteReq mshr miss latency
system.cpu.dcache.WriteReq_avg_mshr_miss_latency::total 35779.886733                       # average WriteReq mshr miss latency
system.cpu.dcache.demand_avg_mshr_miss_latency::cpu.data 58211.283088                       # average overall mshr miss latency
system.cpu.dcache.demand_avg_mshr_miss_latency::total 58211.283088                       # average overall mshr miss latency
system.cpu.dcache.overall_avg_mshr_miss_latency::cpu.data 58211.283088                       # average overall mshr miss latency
system.cpu.dcache.overall_avg_mshr_miss_latency::total 58211.283088                       # average overall mshr miss latency
system.cpu.dcache.replacements                  44656                       # number of replacements
system.cpu.dtb_walker_cache.tags.pwrStateResidencyTicks::UNDEFINED  45242646000                       # Cumulative time (in ticks) in various power states
system.cpu.dtb_walker_cache.tags.tagsinuse            0                       # Cycle average of tags in use
system.cpu.dtb_walker_cache.tags.total_refs            0                       # Total number of references to valid blocks.
system.cpu.dtb_walker_cache.tags.sampled_refs            0                       # Sample count of references to valid blocks.
system.cpu.dtb_walker_cache.tags.avg_refs          nan                       # Average number of references to valid blocks.
system.cpu.dtb_walker_cache.tags.warmup_cycle            0                       # Cycle when the warmup percentage was hit.
system.cpu.dtb_walker_cache.tags.tag_accesses            0                       # Number of tag accesses
system.cpu.dtb_walker_cache.tags.data_accesses            0                       # Number of data accesses
system.cpu.dtb_walker_cache.pwrStateResidencyTicks::UNDEFINED  45242646000                       # Cumulative time (in ticks) in various power states
system.cpu.dtb_walker_cache.blocked_cycles::no_mshrs            0                       # number of cycles access was blocked
system.cpu.dtb_walker_cache.blocked_cycles::no_targets            0                       # number of cycles access was blocked
system.cpu.dtb_walker_cache.blocked::no_mshrs            0                       # number of cycles access was blocked
system.cpu.dtb_walker_cache.blocked::no_targets            0                       # number of cycles access was blocked
system.cpu.dtb_walker_cache.avg_blocked_cycles::no_mshrs          nan                       # average number of cycles each access was blocked
system.cpu.dtb_walker_cache.avg_blocked_cycles::no_targets          nan                       # average number of cycles each access was blocked
system.cpu.dtb_walker_cache.replacements            0                       # number of replacements
system.cpu.icache.tags.pwrStateResidencyTicks::UNDEFINED  45242646000                       # Cumulative time (in ticks) in various power states
system.cpu.icache.tags.tagsinuse           280.183590                       # Cycle average of tags in use
system.cpu.icache.tags.total_refs            35206240                       # Total number of references to valid blocks.
system.cpu.icache.tags.sampled_refs               354                       # Sample count of references to valid blocks.
system.cpu.icache.tags.avg_refs          99452.655367                       # Average number of references to valid blocks.
system.cpu.icache.tags.warmup_cycle            439000                       # Cycle when the warmup percentage was hit.
system.cpu.icache.tags.occ_blocks::cpu.inst   280.183590                       # Average occupied blocks per requestor
system.cpu.icache.tags.occ_percent::cpu.inst     0.547234                       # Average percentage of cache occupancy
system.cpu.icache.tags.occ_percent::total     0.547234                       # Average percentage of cache occupancy
system.cpu.icache.tags.occ_task_id_blocks::1024          309                       # Occupied blocks per task id
system.cpu.icache.tags.age_task_id_blocks_1024::0           13                       # Occupied blocks per task id
system.cpu.icache.tags.age_task_id_blocks_1024::1           24                       # Occupied blocks per task id
system.cpu.icache.tags.age_task_id_blocks_1024::4          272                       # Occupied blocks per task id
system.cpu.icache.tags.occ_task_id_percent::1024     0.603516                       # Percentage of cache occupancy per task id
system.cpu.icache.tags.tag_accesses          70412834                       # Number of tag accesses
system.cpu.icache.tags.data_accesses         70412834                       # Number of data accesses
system.cpu.icache.pwrStateResidencyTicks::UNDEFINED  45242646000                       # Cumulative time (in ticks) in various power states
system.cpu.icache.ReadReq_hits::cpu.inst     35205886                       # number of ReadReq hits
system.cpu.icache.ReadReq_hits::total        35205886                       # number of ReadReq hits
system.cpu.icache.demand_hits::cpu.inst      35205886                       # number of demand (read+write) hits
system.cpu.icache.demand_hits::total         35205886                       # number of demand (read+write) hits
system.cpu.icache.overall_hits::cpu.inst     35205886                       # number of overall hits
system.cpu.icache.overall_hits::total        35205886                       # number of overall hits
system.cpu.icache.ReadReq_misses::cpu.inst          354                       # number of ReadReq misses
system.cpu.icache.ReadReq_misses::total           354                       # number of ReadReq misses
system.cpu.icache.demand_misses::cpu.inst          354                       # number of demand (read+write) misses
system.cpu.icache.demand_misses::total            354                       # number of demand (read+write) misses
system.cpu.icache.overall_misses::cpu.inst          354                       # number of overall misses
system.cpu.icache.overall_misses::total           354                       # number of overall misses
system.cpu.icache.ReadReq_miss_latency::cpu.inst     70834000                       # number of ReadReq miss cycles
system.cpu.icache.ReadReq_miss_latency::total     70834000                       # number of ReadReq miss cycles
system.cpu.icache.demand_miss_latency::cpu.inst     70834000                       # number of demand (read+write) miss cycles
system.cpu.icache.demand_miss_latency::total     70834000                       # number of demand (read+write) miss cycles
system.cpu.icache.overall_miss_latency::cpu.inst     70834000                       # number of overall miss cycles
system.cpu.icache.overall_miss_latency::total     70834000                       # number of overall miss cycles
system.cpu.icache.ReadReq_accesses::cpu.inst     35206240                       # number of ReadReq accesses(hits+misses)
system.cpu.icache.ReadReq_accesses::total     35206240                       # number of ReadReq accesses(hits+misses)
system.cpu.icache.demand_accesses::cpu.inst     35206240                       # number of demand (read+write) accesses
system.cpu.icache.demand_accesses::total     35206240                       # number of demand (read+write) accesses
system.cpu.icache.overall_accesses::cpu.inst     35206240                       # number of overall (read+write) accesses
system.cpu.icache.overall_accesses::total     35206240                       # number of overall (read+write) accesses
system.cpu.icache.ReadReq_miss_rate::cpu.inst     0.000010                       # miss rate for ReadReq accesses
system.cpu.icache.ReadReq_miss_rate::total     0.000010                       # miss rate for ReadReq accesses
system.cpu.icache.demand_miss_rate::cpu.inst     0.000010                       # miss rate for demand accesses
system.cpu.icache.demand_miss_rate::total     0.000010                       # miss rate for demand accesses
system.cpu.icache.overall_miss_rate::cpu.inst     0.000010                       # miss rate for overall accesses
system.cpu.icache.overall_miss_rate::total     0.000010                       # miss rate for overall accesses
system.cpu.icache.ReadReq_avg_miss_latency::cpu.inst 200096.045198                       # average ReadReq miss latency
system.cpu.icache.ReadReq_avg_miss_latency::total 200096.045198                       # average ReadReq miss latency
system.cpu.icache.demand_avg_miss_latency::cpu.inst 200096.045198                       # average overall miss latency
system.cpu.icache.demand_avg_miss_latency::total 200096.045198                       # average overall miss latency
system.cpu.icache.overall_avg_miss_latency::cpu.inst 200096.045198                       # average overall miss latency
system.cpu.icache.overall_avg_miss_latency::total 200096.045198                       # average overall miss latency
system.cpu.icache.blocked_cycles::no_mshrs            0                       # number of cycles access was blocked
system.cpu.icache.blocked_cycles::no_targets            0                       # number of cycles access was blocked
system.cpu.icache.blocked::no_mshrs                 0                       # number of cycles access was blocked
system.cpu.icache.blocked::no_targets               0                       # number of cycles access was blocked
system.cpu.icache.avg_blocked_cycles::no_mshrs          nan                       # average number of cycles each access was blocked
system.cpu.icache.avg_blocked_cycles::no_targets          nan                       # average number of cycles each access was blocked
system.cpu.icache.writebacks::writebacks           45                       # number of writebacks
system.cpu.icache.writebacks::total                45                       # number of writebacks
system.cpu.icache.ReadReq_mshr_misses::cpu.inst          354                       # number of ReadReq MSHR misses
system.cpu.icache.ReadReq_mshr_misses::total          354                       # number of ReadReq MSHR misses
system.cpu.icache.demand_mshr_misses::cpu.inst          354                       # number of demand (read+write) MSHR misses
system.cpu.icache.demand_mshr_misses::total          354                       # number of demand (read+write) MSHR misses
system.cpu.icache.overall_mshr_misses::cpu.inst          354                       # number of overall MSHR misses
system.cpu.icache.overall_mshr_misses::total          354                       # number of overall MSHR misses
system.cpu.icache.ReadReq_mshr_miss_latency::cpu.inst     70480000                       # number of ReadReq MSHR miss cycles
system.cpu.icache.ReadReq_mshr_miss_latency::total     70480000                       # number of ReadReq MSHR miss cycles
system.cpu.icache.demand_mshr_miss_latency::cpu.inst     70480000                       # number of demand (read+write) MSHR miss cycles
system.cpu.icache.demand_mshr_miss_latency::total     70480000                       # number of demand (read+write) MSHR miss cycles
system.cpu.icache.overall_mshr_miss_latency::cpu.inst     70480000                       # number of overall MSHR miss cycles
system.cpu.icache.overall_mshr_miss_latency::total     70480000                       # number of overall MSHR miss cycles
system.cpu.icache.ReadReq_mshr_miss_rate::cpu.inst     0.000010                       # mshr miss rate for ReadReq accesses
system.cpu.icache.ReadReq_mshr_miss_rate::total     0.000010                       # mshr miss rate for ReadReq accesses
system.cpu.icache.demand_mshr_miss_rate::cpu.inst     0.000010                       # mshr miss rate for demand accesses
system.cpu.icache.demand_mshr_miss_rate::total     0.000010                       # mshr miss rate for demand accesses
system.cpu.icache.overall_mshr_miss_rate::cpu.inst     0.000010                       # mshr miss rate for overall accesses
system.cpu.icache.overall_mshr_miss_rate::total     0.000010                       # mshr miss rate for overall accesses
system.cpu.icache.ReadReq_avg_mshr_miss_latency::cpu.inst 199096.045198                       # average ReadReq mshr miss latency
system.cpu.icache.ReadReq_avg_mshr_miss_latency::total 199096.045198                       # average ReadReq mshr miss latency
system.cpu.icache.demand_avg_mshr_miss_latency::cpu.inst 199096.045198                       # average overall mshr miss latency
system.cpu.icache.demand_avg_mshr_miss_latency::total 199096.045198                       # average overall mshr miss latency
system.cpu.icache.overall_avg_mshr_miss_latency::cpu.inst 199096.045198                       # average overall mshr miss latency
system.cpu.icache.overall_avg_mshr_miss_latency::total 199096.045198                       # average overall mshr miss latency
system.cpu.icache.replacements                     45                       # number of replacements
system.cpu.itb_walker_cache.tags.pwrStateResidencyTicks::UNDEFINED  45242646000                       # Cumulative time (in ticks) in various power states
system.cpu.itb_walker_cache.tags.tagsinuse            0                       # Cycle average of tags in use
system.cpu.itb_walker_cache.tags.total_refs            0                       # Total number of references to valid blocks.
system.cpu.itb_walker_cache.tags.sampled_refs            0                       # Sample count of references to valid blocks.
system.cpu.itb_walker_cache.tags.avg_refs          nan                       # Average number of references to valid blocks.
system.cpu.itb_walker_cache.tags.warmup_cycle            0                       # Cycle when the warmup percentage was hit.
system.cpu.itb_walker_cache.tags.tag_accesses            0                       # Number of tag accesses
system.cpu.itb_walker_cache.tags.data_accesses            0                       # Number of data accesses
system.cpu.itb_walker_cache.pwrStateResidencyTicks::UNDEFINED  45242646000                       # Cumulative time (in ticks) in various power states
system.cpu.itb_walker_cache.blocked_cycles::no_mshrs            0                       # number of cycles access was blocked
system.cpu.itb_walker_cache.blocked_cycles::no_targets            0                       # number of cycles access was blocked
system.cpu.itb_walker_cache.blocked::no_mshrs            0                       # number of cycles access was blocked
system.cpu.itb_walker_cache.blocked::no_targets            0                       # number of cycles access was blocked
system.cpu.itb_walker_cache.avg_blocked_cycles::no_mshrs          nan                       # average number of cycles each access was blocked
system.cpu.itb_walker_cache.avg_blocked_cycles::no_targets          nan                       # average number of cycles each access was blocked
system.cpu.itb_walker_cache.replacements            0                       # number of replacements
system.l2.tags.pwrStateResidencyTicks::UNDEFINED  45242646000                       # Cumulative time (in ticks) in various power states
system.l2.tags.tagsinuse                  1993.026681                       # Cycle average of tags in use
system.l2.tags.total_refs                      101458                       # Total number of references to valid blocks.
system.l2.tags.sampled_refs                     24105                       # Sample count of references to valid blocks.
system.l2.tags.avg_refs                      4.209002                       # Average number of references to valid blocks.
system.l2.tags.warmup_cycle                    428500                       # Cycle when the warmup percentage was hit.
system.l2.tags.occ_blocks::writebacks        0.089769                       # Average occupied blocks per requestor
system.l2.tags.occ_blocks::cpu.inst         21.198969                       # Average occupied blocks per requestor
system.l2.tags.occ_blocks::cpu.data       1971.737944                       # Average occupied blocks per requestor
system.l2.tags.occ_percent::writebacks       0.000044                       # Average percentage of cache occupancy
system.l2.tags.occ_percent::cpu.inst         0.010351                       # Average percentage of cache occupancy
system.l2.tags.occ_percent::cpu.data         0.962763                       # Average percentage of cache occupancy
system.l2.tags.occ_percent::total            0.973158                       # Average percentage of cache occupancy
system.l2.tags.occ_task_id_blocks::1024          2048                       # Occupied blocks per task id
system.l2.tags.age_task_id_blocks_1024::0           28                       # Occupied blocks per task id
system.l2.tags.age_task_id_blocks_1024::1           44                       # Occupied blocks per task id
system.l2.tags.age_task_id_blocks_1024::2           76                       # Occupied blocks per task id
system.l2.tags.age_task_id_blocks_1024::3          432                       # Occupied blocks per task id
system.l2.tags.age_task_id_blocks_1024::4         1468                       # Occupied blocks per task id
system.l2.tags.occ_task_id_percent::1024            1                       # Percentage of cache occupancy per task id
system.l2.tags.tag_accesses                    835769                       # Number of tag accesses
system.l2.tags.data_accesses                   835769                       # Number of data accesses
system.l2.pwrStateResidencyTicks::UNDEFINED  45242646000                       # Cumulative time (in ticks) in various power states
system.l2.WritebackDirty_hits::writebacks        43168                       # number of WritebackDirty hits
system.l2.WritebackDirty_hits::total            43168                       # number of WritebackDirty hits
system.l2.WritebackClean_hits::writebacks           45                       # number of WritebackClean hits
system.l2.WritebackClean_hits::total               45                       # number of WritebackClean hits
system.l2.UpgradeReq_hits::cpu.data             11235                       # number of UpgradeReq hits
system.l2.UpgradeReq_hits::total                11235                       # number of UpgradeReq hits
system.l2.ReadExReq_hits::cpu.data                189                       # number of ReadExReq hits
system.l2.ReadExReq_hits::total                   189                       # number of ReadExReq hits
system.l2.ReadSharedReq_hits::cpu.data          21245                       # number of ReadSharedReq hits
system.l2.ReadSharedReq_hits::total             21245                       # number of ReadSharedReq hits
system.l2.demand_hits::cpu.data                 21434                       # number of demand (read+write) hits
system.l2.demand_hits::total                    21434                       # number of demand (read+write) hits
system.l2.overall_hits::cpu.data                21434                       # number of overall hits
system.l2.overall_hits::total                   21434                       # number of overall hits
system.l2.ReadExReq_misses::cpu.data             6410                       # number of ReadExReq misses
system.l2.ReadExReq_misses::total                6410                       # number of ReadExReq misses
system.l2.ReadCleanReq_misses::cpu.inst           354                       # number of ReadCleanReq misses
system.l2.ReadCleanReq_misses::total              354                       # number of ReadCleanReq misses
system.l2.ReadSharedReq_misses::cpu.data        17324                       # number of ReadSharedReq misses
system.l2.ReadSharedReq_misses::total           17324                       # number of ReadSharedReq misses
system.l2.demand_misses::cpu.inst                 354                       # number of demand (read+write) misses
system.l2.demand_misses::cpu.data               23734                       # number of demand (read+write) misses
system.l2.demand_misses::total                  24088                       # number of demand (read+write) misses
system.l2.overall_misses::cpu.inst                354                       # number of overall misses
system.l2.overall_misses::cpu.data              23734                       # number of overall misses
system.l2.overall_misses::total                 24088                       # number of overall misses
system.l2.ReadExReq_miss_latency::cpu.data    491394500                       # number of ReadExReq miss cycles
system.l2.ReadExReq_miss_latency::total     491394500                       # number of ReadExReq miss cycles
system.l2.ReadCleanReq_miss_latency::cpu.inst     69946000                       # number of ReadCleanReq miss cycles
system.l2.ReadCleanReq_miss_latency::total     69946000                       # number of ReadCleanReq miss cycles
system.l2.ReadSharedReq_miss_latency::cpu.data   2364266500                       # number of ReadSharedReq miss cycles
system.l2.ReadSharedReq_miss_latency::total   2364266500                       # number of ReadSharedReq miss cycles
system.l2.demand_miss_latency::cpu.inst      69946000                       # number of demand (read+write) miss cycles
system.l2.demand_miss_latency::cpu.data    2855661000                       # number of demand (read+write) miss cycles
system.l2.demand_miss_latency::total       2925607000                       # number of demand (read+write) miss cycles
system.l2.overall_miss_latency::cpu.inst     69946000                       # number of overall miss cycles
system.l2.overall_miss_latency::cpu.data   2855661000                       # number of overall miss cycles
system.l2.overall_miss_latency::total      2925607000                       # number of overall miss cycles
system.l2.WritebackDirty_accesses::writebacks        43168                       # number of WritebackDirty accesses(hits+misses)
system.l2.WritebackDirty_accesses::total        43168                       # number of WritebackDirty accesses(hits+misses)
system.l2.WritebackClean_accesses::writebacks           45                       # number of WritebackClean accesses(hits+misses)
system.l2.WritebackClean_accesses::total           45                       # number of WritebackClean accesses(hits+misses)
system.l2.UpgradeReq_accesses::cpu.data         11235                       # number of UpgradeReq accesses(hits+misses)
system.l2.UpgradeReq_accesses::total            11235                       # number of UpgradeReq accesses(hits+misses)
system.l2.ReadExReq_accesses::cpu.data           6599                       # number of ReadExReq accesses(hits+misses)
system.l2.ReadExReq_accesses::total              6599                       # number of ReadExReq accesses(hits+misses)
system.l2.ReadCleanReq_accesses::cpu.inst          354                       # number of ReadCleanReq accesses(hits+misses)
system.l2.ReadCleanReq_accesses::total            354                       # number of ReadCleanReq accesses(hits+misses)
system.l2.ReadSharedReq_accesses::cpu.data        38569                       # number of ReadSharedReq accesses(hits+misses)
system.l2.ReadSharedReq_accesses::total         38569                       # number of ReadSharedReq accesses(hits+misses)
system.l2.demand_accesses::cpu.inst               354                       # number of demand (read+write) accesses
system.l2.demand_accesses::cpu.data             45168                       # number of demand (read+write) accesses
system.l2.demand_accesses::total                45522                       # number of demand (read+write) accesses
system.l2.overall_accesses::cpu.inst              354                       # number of overall (read+write) accesses
system.l2.overall_accesses::cpu.data            45168                       # number of overall (read+write) accesses
system.l2.overall_accesses::total               45522                       # number of overall (read+write) accesses
system.l2.ReadExReq_miss_rate::cpu.data      0.971359                       # miss rate for ReadExReq accesses
system.l2.ReadExReq_miss_rate::total         0.971359                       # miss rate for ReadExReq accesses
system.l2.ReadCleanReq_miss_rate::cpu.inst            1                       # miss rate for ReadCleanReq accesses
system.l2.ReadCleanReq_miss_rate::total             1                       # miss rate for ReadCleanReq accesses
system.l2.ReadSharedReq_miss_rate::cpu.data     0.449169                       # miss rate for ReadSharedReq accesses
system.l2.ReadSharedReq_miss_rate::total     0.449169                       # miss rate for ReadSharedReq accesses
system.l2.demand_miss_rate::cpu.inst                1                       # miss rate for demand accesses
system.l2.demand_miss_rate::cpu.data         0.525461                       # miss rate for demand accesses
system.l2.demand_miss_rate::total            0.529151                       # miss rate for demand accesses
system.l2.overall_miss_rate::cpu.inst               1                       # miss rate for overall accesses
system.l2.overall_miss_rate::cpu.data        0.525461                       # miss rate for overall accesses
system.l2.overall_miss_rate::total           0.529151                       # miss rate for overall accesses
system.l2.ReadExReq_avg_miss_latency::cpu.data 76660.608424                       # average ReadExReq miss latency
system.l2.ReadExReq_avg_miss_latency::total 76660.608424                       # average ReadExReq miss latency
system.l2.ReadCleanReq_avg_miss_latency::cpu.inst 197587.570621                       # average ReadCleanReq miss latency
system.l2.ReadCleanReq_avg_miss_latency::total 197587.570621                       # average ReadCleanReq miss latency
system.l2.ReadSharedReq_avg_miss_latency::cpu.data 136473.476103                       # average ReadSharedReq miss latency
system.l2.ReadSharedReq_avg_miss_latency::total 136473.476103                       # average ReadSharedReq miss latency
system.l2.demand_avg_miss_latency::cpu.inst 197587.570621                       # average overall miss latency
system.l2.demand_avg_miss_latency::cpu.data 120319.415185                       # average overall miss latency
system.l2.demand_avg_miss_latency::total 121454.956825                       # average overall miss latency
system.l2.overall_avg_miss_latency::cpu.inst 197587.570621                       # average overall miss latency
system.l2.overall_avg_miss_latency::cpu.data 120319.415185                       # average overall miss latency
system.l2.overall_avg_miss_latency::total 121454.956825                       # average overall miss latency
system.l2.blocked_cycles::no_mshrs                  0                       # number of cycles access was blocked
system.l2.blocked_cycles::no_targets                0                       # number of cycles access was blocked
system.l2.blocked::no_mshrs                         0                       # number of cycles access was blocked
system.l2.blocked::no_targets                       0                       # number of cycles access was blocked
system.l2.avg_blocked_cycles::no_mshrs            nan                       # average number of cycles each access was blocked
system.l2.avg_blocked_cycles::no_targets          nan                       # average number of cycles each access was blocked
system.l2.writebacks::writebacks                21612                       # number of writebacks
system.l2.writebacks::total                     21612                       # number of writebacks
system.l2.ReadExReq_mshr_misses::cpu.data         6410                       # number of ReadExReq MSHR misses
system.l2.ReadExReq_mshr_misses::total           6410                       # number of ReadExReq MSHR misses
system.l2.ReadCleanReq_mshr_misses::cpu.inst          354                       # number of ReadCleanReq MSHR misses
system.l2.ReadCleanReq_mshr_misses::total          354                       # number of ReadCleanReq MSHR misses
system.l2.ReadSharedReq_mshr_misses::cpu.data        17324                       # number of ReadSharedReq MSHR misses
system.l2.ReadSharedReq_mshr_misses::total        17324                       # number of ReadSharedReq MSHR misses
system.l2.demand_mshr_misses::cpu.inst            354                       # number of demand (read+write) MSHR misses
system.l2.demand_mshr_misses::cpu.data          23734                       # number of demand (read+write) MSHR misses
system.l2.demand_mshr_misses::total             24088                       # number of demand (read+write) MSHR misses
system.l2.overall_mshr_misses::cpu.inst           354                       # number of overall MSHR misses
system.l2.overall_mshr_misses::cpu.data         23734                       # number of overall MSHR misses
system.l2.overall_mshr_misses::total            24088                       # number of overall MSHR misses
system.l2.ReadExReq_mshr_miss_latency::cpu.data    427294500                       # number of ReadExReq MSHR miss cycles
system.l2.ReadExReq_mshr_miss_latency::total    427294500                       # number of ReadExReq MSHR miss cycles
system.l2.ReadCleanReq_mshr_miss_latency::cpu.inst     66406000                       # number of ReadCleanReq MSHR miss cycles
system.l2.ReadCleanReq_mshr_miss_latency::total     66406000                       # number of ReadCleanReq MSHR miss cycles
system.l2.ReadSharedReq_mshr_miss_latency::cpu.data   2191026500                       # number of ReadSharedReq MSHR miss cycles
system.l2.ReadSharedReq_mshr_miss_latency::total   2191026500                       # number of ReadSharedReq MSHR miss cycles
system.l2.demand_mshr_miss_latency::cpu.inst     66406000                       # number of demand (read+write) MSHR miss cycles
system.l2.demand_mshr_miss_latency::cpu.data   2618321000                       # number of demand (read+write) MSHR miss cycles
system.l2.demand_mshr_miss_latency::total   2684727000                       # number of demand (read+write) MSHR miss cycles
system.l2.overall_mshr_miss_latency::cpu.inst     66406000                       # number of overall MSHR miss cycles
system.l2.overall_mshr_miss_latency::cpu.data   2618321000                       # number of overall MSHR miss cycles
system.l2.overall_mshr_miss_latency::total   2684727000                       # number of overall MSHR miss cycles
system.l2.ReadExReq_mshr_miss_rate::cpu.data     0.971359                       # mshr miss rate for ReadExReq accesses
system.l2.ReadExReq_mshr_miss_rate::total     0.971359                       # mshr miss rate for ReadExReq accesses
system.l2.ReadCleanReq_mshr_miss_rate::cpu.inst            1                       # mshr miss rate for ReadCleanReq accesses
system.l2.ReadCleanReq_mshr_miss_rate::total            1                       # mshr miss rate for ReadCleanReq accesses
system.l2.ReadSharedReq_mshr_miss_rate::cpu.data     0.449169                       # mshr miss rate for ReadSharedReq accesses
system.l2.ReadSharedReq_mshr_miss_rate::total     0.449169                       # mshr miss rate for ReadSharedReq accesses
system.l2.demand_mshr_miss_rate::cpu.inst            1                       # mshr miss rate for demand accesses
system.l2.demand_mshr_miss_rate::cpu.data     0.525461                       # mshr miss rate for demand accesses
system.l2.demand_mshr_miss_rate::total       0.529151                       # mshr miss rate for demand accesses
system.l2.overall_mshr_miss_rate::cpu.inst            1                       # mshr miss rate for overall accesses
system.l2.overall_mshr_miss_rate::cpu.data     0.525461                       # mshr miss rate for overall accesses
system.l2.overall_mshr_miss_rate::total      0.529151                       # mshr miss rate for overall accesses
system.l2.ReadExReq_avg_mshr_miss_latency::cpu.data 66660.608424                       # average ReadExReq mshr miss latency
system.l2.ReadExReq_avg_mshr_miss_latency::total 66660.608424                       # average ReadExReq mshr miss latency
system.l2.ReadCleanReq_avg_mshr_miss_latency::cpu.inst 187587.570621                       # average ReadCleanReq mshr miss latency
system.l2.ReadCleanReq_avg_mshr_miss_latency::total 187587.570621                       # average ReadCleanReq mshr miss latency
system.l2.ReadSharedReq_avg_mshr_miss_latency::cpu.data 126473.476103                       # average ReadSharedReq mshr miss latency
system.l2.ReadSharedReq_avg_mshr_miss_latency::total 126473.476103                       # average ReadSharedReq mshr miss latency
system.l2.demand_avg_mshr_miss_latency::cpu.inst 187587.570621                       # average overall mshr miss latency
system.l2.demand_avg_mshr_miss_latency::cpu.data 110319.415185                       # average overall mshr miss latency
system.l2.demand_avg_mshr_miss_latency::total 111454.956825                       # average overall mshr miss latency
system.l2.overall_avg_mshr_miss_latency::cpu.inst 187587.570621                       # average overall mshr miss latency
system.l2.overall_avg_mshr_miss_latency::cpu.data 110319.415185                       # average overall mshr miss latency
system.l2.overall_avg_mshr_miss_latency::total 111454.956825                       # average overall mshr miss latency
system.l2.replacements                          22057                       # number of replacements
system.l3.tags.pwrStateResidencyTicks::UNDEFINED  45242646000                       # Cumulative time (in ticks) in various power states
system.l3.tags.tagsinuse                  3821.186690                       # Cycle average of tags in use
system.l3.tags.total_refs                       45799                       # Total number of references to valid blocks.
system.l3.tags.sampled_refs                     17966                       # Sample count of references to valid blocks.
system.l3.tags.avg_refs                      2.549204                       # Average number of references to valid blocks.
system.l3.tags.warmup_cycle                    418000                       # Cycle when the warmup percentage was hit.
system.l3.tags.occ_blocks::writebacks        0.604771                       # Average occupied blocks per requestor
system.l3.tags.occ_blocks::cpu.inst        312.297331                       # Average occupied blocks per requestor
system.l3.tags.occ_blocks::cpu.data       3508.284588                       # Average occupied blocks per requestor
system.l3.tags.occ_percent::writebacks       0.000148                       # Average percentage of cache occupancy
system.l3.tags.occ_percent::cpu.inst         0.076244                       # Average percentage of cache occupancy
system.l3.tags.occ_percent::cpu.data         0.856515                       # Average percentage of cache occupancy
system.l3.tags.occ_percent::total            0.932907                       # Average percentage of cache occupancy
system.l3.tags.occ_task_id_blocks::1024          4096                       # Occupied blocks per task id
system.l3.tags.age_task_id_blocks_1024::0            1                       # Occupied blocks per task id
system.l3.tags.age_task_id_blocks_1024::2            1                       # Occupied blocks per task id
system.l3.tags.age_task_id_blocks_1024::3            1                       # Occupied blocks per task id
system.l3.tags.age_task_id_blocks_1024::4         4093                       # Occupied blocks per task id
system.l3.tags.occ_task_id_percent::1024            1                       # Percentage of cache occupancy per task id
system.l3.tags.tag_accesses                 187844142                       # Number of tag accesses
system.l3.tags.data_accesses                187844142                       # Number of data accesses
system.l3.pwrStateResidencyTicks::UNDEFINED  45242646000                       # Cumulative time (in ticks) in various power states
system.l3.WritebackDirty_hits::writebacks        21612                       # number of WritebackDirty hits
system.l3.WritebackDirty_hits::total            21612                       # number of WritebackDirty hits
system.l3.ReadExReq_hits::cpu.data                 24                       # number of ReadExReq hits
system.l3.ReadExReq_hits::total                    24                       # number of ReadExReq hits
system.l3.ReadSharedReq_hits::cpu.data          12001                       # number of ReadSharedReq hits
system.l3.ReadSharedReq_hits::total             12001                       # number of ReadSharedReq hits
system.l3.demand_hits::cpu.data                 12025                       # number of demand (read+write) hits
system.l3.demand_hits::total                    12025                       # number of demand (read+write) hits
system.l3.overall_hits::cpu.data                12025                       # number of overall hits
system.l3.overall_hits::total                   12025                       # number of overall hits
system.l3.ReadExReq_misses::cpu.data             6386                       # number of ReadExReq misses
system.l3.ReadExReq_misses::total                6386                       # number of ReadExReq misses
system.l3.ReadSharedReq_misses::cpu.inst          354                       # number of ReadSharedReq misses
system.l3.ReadSharedReq_misses::cpu.data         5323                       # number of ReadSharedReq misses
system.l3.ReadSharedReq_misses::total            5677                       # number of ReadSharedReq misses
system.l3.demand_misses::cpu.inst                 354                       # number of demand (read+write) misses
system.l3.demand_misses::cpu.data               11709                       # number of demand (read+write) misses
system.l3.demand_misses::total                  12063                       # number of demand (read+write) misses
system.l3.overall_misses::cpu.inst                354                       # number of overall misses
system.l3.overall_misses::cpu.data              11709                       # number of overall misses
system.l3.overall_misses::total                 12063                       # number of overall misses
system.l3.ReadExReq_miss_latency::cpu.data    356532500                       # number of ReadExReq miss cycles
system.l3.ReadExReq_miss_latency::total     356532500                       # number of ReadExReq miss cycles
system.l3.ReadSharedReq_miss_latency::cpu.inst     62512000                       # number of ReadSharedReq miss cycles
system.l3.ReadSharedReq_miss_latency::cpu.data   1517281000                       # number of ReadSharedReq miss cycles
system.l3.ReadSharedReq_miss_latency::total   1579793000                       # number of ReadSharedReq miss cycles
system.l3.demand_miss_latency::cpu.inst      62512000                       # number of demand (read+write) miss cycles
system.l3.demand_miss_latency::cpu.data    1873813500                       # number of demand (read+write) miss cycles
system.l3.demand_miss_latency::total       1936325500                       # number of demand (read+write) miss cycles
system.l3.overall_miss_latency::cpu.inst     62512000                       # number of overall miss cycles
system.l3.overall_miss_latency::cpu.data   1873813500                       # number of overall miss cycles
system.l3.overall_miss_latency::total      1936325500                       # number of overall miss cycles
system.l3.WritebackDirty_accesses::writebacks        21612                       # number of WritebackDirty accesses(hits+misses)
system.l3.WritebackDirty_accesses::total        21612                       # number of WritebackDirty accesses(hits+misses)
system.l3.ReadExReq_accesses::cpu.data           6410                       # number of ReadExReq accesses(hits+misses)
system.l3.ReadExReq_accesses::total              6410                       # number of ReadExReq accesses(hits+misses)
system.l3.ReadSharedReq_accesses::cpu.inst          354                       # number of ReadSharedReq accesses(hits+misses)
system.l3.ReadSharedReq_accesses::cpu.data        17324                       # number of ReadSharedReq accesses(hits+misses)
system.l3.ReadSharedReq_accesses::total         17678                       # number of ReadSharedReq accesses(hits+misses)
system.l3.demand_accesses::cpu.inst               354                       # number of demand (read+write) accesses
system.l3.demand_accesses::cpu.data             23734                       # number of demand (read+write) accesses
system.l3.demand_accesses::total                24088                       # number of demand (read+write) accesses
system.l3.overall_accesses::cpu.inst              354                       # number of overall (read+write) accesses
system.l3.overall_accesses::cpu.data            23734                       # number of overall (read+write) accesses
system.l3.overall_accesses::total               24088                       # number of overall (read+write) accesses
system.l3.ReadExReq_miss_rate::cpu.data      0.996256                       # miss rate for ReadExReq accesses
system.l3.ReadExReq_miss_rate::total         0.996256                       # miss rate for ReadExReq accesses
system.l3.ReadSharedReq_miss_rate::cpu.inst            1                       # miss rate for ReadSharedReq accesses
system.l3.ReadSharedReq_miss_rate::cpu.data     0.307262                       # miss rate for ReadSharedReq accesses
system.l3.ReadSharedReq_miss_rate::total     0.321134                       # miss rate for ReadSharedReq accesses
system.l3.demand_miss_rate::cpu.inst                1                       # miss rate for demand accesses
system.l3.demand_miss_rate::cpu.data         0.493343                       # miss rate for demand accesses
system.l3.demand_miss_rate::total            0.500789                       # miss rate for demand accesses
system.l3.overall_miss_rate::cpu.inst               1                       # miss rate for overall accesses
system.l3.overall_miss_rate::cpu.data        0.493343                       # miss rate for overall accesses
system.l3.overall_miss_rate::total           0.500789                       # miss rate for overall accesses
system.l3.ReadExReq_avg_miss_latency::cpu.data 55830.331976                       # average ReadExReq miss latency
system.l3.ReadExReq_avg_miss_latency::total 55830.331976                       # average ReadExReq miss latency
system.l3.ReadSharedReq_avg_miss_latency::cpu.inst 176587.570621                       # average ReadSharedReq miss latency
system.l3.ReadSharedReq_avg_miss_latency::cpu.data 285042.457261                       # average ReadSharedReq miss latency
system.l3.ReadSharedReq_avg_miss_latency::total 278279.549058                       # average ReadSharedReq miss latency
system.l3.demand_avg_miss_latency::cpu.inst 176587.570621                       # average overall miss latency
system.l3.demand_avg_miss_latency::cpu.data 160031.898540                       # average overall miss latency
system.l3.demand_avg_miss_latency::total 160517.740197                       # average overall miss latency
system.l3.overall_avg_miss_latency::cpu.inst 176587.570621                       # average overall miss latency
system.l3.overall_avg_miss_latency::cpu.data 160031.898540                       # average overall miss latency
system.l3.overall_avg_miss_latency::total 160517.740197                       # average overall miss latency
system.l3.blocked_cycles::no_mshrs                  0                       # number of cycles access was blocked
system.l3.blocked_cycles::no_targets                0                       # number of cycles access was blocked
system.l3.blocked::no_mshrs                         0                       # number of cycles access was blocked
system.l3.blocked::no_targets                       0                       # number of cycles access was blocked
system.l3.avg_blocked_cycles::no_mshrs            nan                       # average number of cycles each access was blocked
system.l3.avg_blocked_cycles::no_targets          nan                       # average number of cycles each access was blocked
system.l3.writebacks::writebacks                 5900                       # number of writebacks
system.l3.writebacks::total                      5900                       # number of writebacks
system.l3.CleanEvict_mshr_misses::writebacks           57                       # number of CleanEvict MSHR misses
system.l3.CleanEvict_mshr_misses::total            57                       # number of CleanEvict MSHR misses
system.l3.ReadExReq_mshr_misses::cpu.data         6386                       # number of ReadExReq MSHR misses
system.l3.ReadExReq_mshr_misses::total           6386                       # number of ReadExReq MSHR misses
system.l3.ReadSharedReq_mshr_misses::cpu.inst          354                       # number of ReadSharedReq MSHR misses
system.l3.ReadSharedReq_mshr_misses::cpu.data         5323                       # number of ReadSharedReq MSHR misses
system.l3.ReadSharedReq_mshr_misses::total         5677                       # number of ReadSharedReq MSHR misses
system.l3.demand_mshr_misses::cpu.inst            354                       # number of demand (read+write) MSHR misses
system.l3.demand_mshr_misses::cpu.data          11709                       # number of demand (read+write) MSHR misses
system.l3.demand_mshr_misses::total             12063                       # number of demand (read+write) MSHR misses
system.l3.overall_mshr_misses::cpu.inst           354                       # number of overall MSHR misses
system.l3.overall_mshr_misses::cpu.data         11709                       # number of overall MSHR misses
system.l3.overall_mshr_misses::total            12063                       # number of overall MSHR misses
system.l3.ReadExReq_mshr_miss_latency::cpu.data    292672500                       # number of ReadExReq MSHR miss cycles
system.l3.ReadExReq_mshr_miss_latency::total    292672500                       # number of ReadExReq MSHR miss cycles
system.l3.ReadSharedReq_mshr_miss_latency::cpu.inst     58972000                       # number of ReadSharedReq MSHR miss cycles
system.l3.ReadSharedReq_mshr_miss_latency::cpu.data   1464051000                       # number of ReadSharedReq MSHR miss cycles
system.l3.ReadSharedReq_mshr_miss_latency::total   1523023000                       # number of ReadSharedReq MSHR miss cycles
system.l3.demand_mshr_miss_latency::cpu.inst     58972000                       # number of demand (read+write) MSHR miss cycles
system.l3.demand_mshr_miss_latency::cpu.data   1756723500                       # number of demand (read+write) MSHR miss cycles
system.l3.demand_mshr_miss_latency::total   1815695500                       # number of demand (read+write) MSHR miss cycles
system.l3.overall_mshr_miss_latency::cpu.inst     58972000                       # number of overall MSHR miss cycles
system.l3.overall_mshr_miss_latency::cpu.data   1756723500                       # number of overall MSHR miss cycles
system.l3.overall_mshr_miss_latency::total   1815695500                       # number of overall MSHR miss cycles
system.l3.CleanEvict_mshr_miss_rate::writebacks          inf                       # mshr miss rate for CleanEvict accesses
system.l3.CleanEvict_mshr_miss_rate::total          inf                       # mshr miss rate for CleanEvict accesses
system.l3.ReadExReq_mshr_miss_rate::cpu.data     0.996256                       # mshr miss rate for ReadExReq accesses
system.l3.ReadExReq_mshr_miss_rate::total     0.996256                       # mshr miss rate for ReadExReq accesses
system.l3.ReadSharedReq_mshr_miss_rate::cpu.inst            1                       # mshr miss rate for ReadSharedReq accesses
system.l3.ReadSharedReq_mshr_miss_rate::cpu.data     0.307262                       # mshr miss rate for ReadSharedReq accesses
system.l3.ReadSharedReq_mshr_miss_rate::total     0.321134                       # mshr miss rate for ReadSharedReq accesses
system.l3.demand_mshr_miss_rate::cpu.inst            1                       # mshr miss rate for demand accesses
system.l3.demand_mshr_miss_rate::cpu.data     0.493343                       # mshr miss rate for demand accesses
system.l3.demand_mshr_miss_rate::total       0.500789                       # mshr miss rate for demand accesses
system.l3.overall_mshr_miss_rate::cpu.inst            1                       # mshr miss rate for overall accesses
system.l3.overall_mshr_miss_rate::cpu.data     0.493343                       # mshr miss rate for overall accesses
system.l3.overall_mshr_miss_rate::total      0.500789                       # mshr miss rate for overall accesses
system.l3.ReadExReq_avg_mshr_miss_latency::cpu.data 45830.331976                       # average ReadExReq mshr miss latency
system.l3.ReadExReq_avg_mshr_miss_latency::total 45830.331976                       # average ReadExReq mshr miss latency
system.l3.ReadSharedReq_avg_mshr_miss_latency::cpu.inst 166587.570621                       # average ReadSharedReq mshr miss latency
system.l3.ReadSharedReq_avg_mshr_miss_latency::cpu.data 275042.457261                       # average ReadSharedReq mshr miss latency
system.l3.ReadSharedReq_avg_mshr_miss_latency::total 268279.549058                       # average ReadSharedReq mshr miss latency
system.l3.demand_avg_mshr_miss_latency::cpu.inst 166587.570621                       # average overall mshr miss latency
system.l3.demand_avg_mshr_miss_latency::cpu.data 150031.898540                       # average overall mshr miss latency
system.l3.demand_avg_mshr_miss_latency::total 150517.740197                       # average overall mshr miss latency
system.l3.overall_avg_mshr_miss_latency::cpu.inst 166587.570621                       # average overall mshr miss latency
system.l3.overall_avg_mshr_miss_latency::cpu.data 150031.898540                       # average overall mshr miss latency
system.l3.overall_avg_mshr_miss_latency::total 150517.740197                       # average overall mshr miss latency
system.l3.replacements                          13870                       # number of replacements
system.membus.snoop_filter.tot_requests         20328                       # Total number of requests made to the snoop filter.
system.membus.snoop_filter.hit_single_requests         8265                       # Number of requests hitting in the snoop filter with a single holder of the requested data.
system.membus.snoop_filter.hit_multi_requests            0                       # Number of requests hitting in the snoop filter with multiple (>1) holders of the requested data.
system.membus.snoop_filter.tot_snoops               0                       # Total number of snoops made to the snoop filter.
system.membus.snoop_filter.hit_single_snoops            0                       # Number of snoops hitting in the snoop filter with a single holder of the requested data.
system.membus.snoop_filter.hit_multi_snoops            0                       # Number of snoops hitting in the snoop filter with multiple (>1) holders of the requested data.
system.membus.pwrStateResidencyTicks::UNDEFINED  45242646000                       # Cumulative time (in ticks) in various power states
system.membus.trans_dist::ReadResp               5677                       # Transaction distribution
system.membus.trans_dist::WritebackDirty         5900                       # Transaction distribution
system.membus.trans_dist::CleanEvict               57                       # Transaction distribution
system.membus.trans_dist::ReadExReq              6386                       # Transaction distribution
system.membus.trans_dist::ReadExResp             6386                       # Transaction distribution
system.membus.trans_dist::ReadSharedReq          5677                       # Transaction distribution
system.membus.pkt_count_system.l3.mem_side::system.mem_ctrls.port        30083                       # Packet count per connected master and slave (bytes)
system.membus.pkt_count_system.l3.mem_side::total        30083                       # Packet count per connected master and slave (bytes)
system.membus.pkt_count::total                  30083                       # Packet count per connected master and slave (bytes)
system.membus.pkt_size_system.l3.mem_side::system.mem_ctrls.port      1149632                       # Cumulative packet size per connected master and slave (bytes)
system.membus.pkt_size_system.l3.mem_side::total      1149632                       # Cumulative packet size per connected master and slave (bytes)
system.membus.pkt_size::total                 1149632                       # Cumulative packet size per connected master and slave (bytes)
system.membus.snoops                                0                       # Total snoops (count)
system.membus.snoopTraffic                          0                       # Total snoop traffic (bytes)
system.membus.snoop_fanout::samples             12063                       # Request fanout histogram
system.membus.snoop_fanout::mean                    0                       # Request fanout histogram
system.membus.snoop_fanout::stdev                   0                       # Request fanout histogram
system.membus.snoop_fanout::underflows              0      0.00%      0.00% # Request fanout histogram
system.membus.snoop_fanout::0                   12063    100.00%    100.00% # Request fanout histogram
system.membus.snoop_fanout::1                       0      0.00%    100.00% # Request fanout histogram
system.membus.snoop_fanout::overflows               0      0.00%    100.00% # Request fanout histogram
system.membus.snoop_fanout::min_value               0                       # Request fanout histogram
system.membus.snoop_fanout::max_value               0                       # Request fanout histogram
system.membus.snoop_fanout::total               12063                       # Request fanout histogram
system.membus.reqLayer2.occupancy            44785500                       # Layer occupancy (ticks)
system.membus.reqLayer2.utilization               0.1                       # Layer utilization (%)
system.membus.respLayer1.occupancy           60320500                       # Layer occupancy (ticks)
system.membus.respLayer1.utilization              0.1                       # Layer utilization (%)
system.tol2bus.snoop_filter.tot_requests       101458                       # Total number of requests made to the snoop filter.
system.tol2bus.snoop_filter.hit_single_requests        55936                       # Number of requests hitting in the snoop filter with a single holder of the requested data.
system.tol2bus.snoop_filter.hit_multi_requests            0                       # Number of requests hitting in the snoop filter with multiple (>1) holders of the requested data.
system.tol2bus.snoop_filter.tot_snoops           8256                       # Total number of snoops made to the snoop filter.
system.tol2bus.snoop_filter.hit_single_snoops         8256                       # Number of snoops hitting in the snoop filter with a single holder of the requested data.
system.tol2bus.snoop_filter.hit_multi_snoops            0                       # Number of snoops hitting in the snoop filter with multiple (>1) holders of the requested data.
system.tol2bus.pwrStateResidencyTicks::UNDEFINED  45242646000                       # Cumulative time (in ticks) in various power states
system.tol2bus.trans_dist::ReadResp             38923                       # Transaction distribution
system.tol2bus.trans_dist::WritebackDirty        64780                       # Transaction distribution
system.tol2bus.trans_dist::WritebackClean           45                       # Transaction distribution
system.tol2bus.trans_dist::CleanEvict            9903                       # Transaction distribution
system.tol2bus.trans_dist::UpgradeReq           11235                       # Transaction distribution
system.tol2bus.trans_dist::UpgradeResp          11235                       # Transaction distribution
system.tol2bus.trans_dist::ReadExReq             6599                       # Transaction distribution
system.tol2bus.trans_dist::ReadExResp            6599                       # Transaction distribution
system.tol2bus.trans_dist::ReadCleanReq           354                       # Transaction distribution
system.tol2bus.trans_dist::ReadSharedReq        38569                       # Transaction distribution
system.tol2bus.pkt_count_system.cpu.icache.mem_side::system.l2.cpu_side          753                       # Packet count per connected master and slave (bytes)
system.tol2bus.pkt_count_system.cpu.dcache.mem_side::system.l2.cpu_side       157462                       # Packet count per connected master and slave (bytes)
system.tol2bus.pkt_count::total                158215                       # Packet count per connected master and slave (bytes)
system.tol2bus.pkt_size_system.cpu.icache.mem_side::system.l2.cpu_side        25536                       # Cumulative packet size per connected master and slave (bytes)
system.tol2bus.pkt_size_system.cpu.dcache.mem_side::system.l2.cpu_side      5653504                       # Cumulative packet size per connected master and slave (bytes)
system.tol2bus.pkt_size::total                5679040                       # Cumulative packet size per connected master and slave (bytes)
system.tol2bus.snoops                           30027                       # Total snoops (count)
system.tol2bus.snoopTraffic                   1383168                       # Total snoop traffic (bytes)
system.tol2bus.snoop_fanout::samples            86784                       # Request fanout histogram
system.tol2bus.snoop_fanout::mean            0.095133                       # Request fanout histogram
system.tol2bus.snoop_fanout::stdev           0.293400                       # Request fanout histogram
system.tol2bus.snoop_fanout::underflows             0      0.00%      0.00% # Request fanout histogram
system.tol2bus.snoop_fanout::0                  78528     90.49%     90.49% # Request fanout histogram
system.tol2bus.snoop_fanout::1                   8256      9.51%    100.00% # Request fanout histogram
system.tol2bus.snoop_fanout::2                      0      0.00%    100.00% # Request fanout histogram
system.tol2bus.snoop_fanout::3                      0      0.00%    100.00% # Request fanout histogram
system.tol2bus.snoop_fanout::4                      0      0.00%    100.00% # Request fanout histogram
system.tol2bus.snoop_fanout::overflows              0      0.00%    100.00% # Request fanout histogram
system.tol2bus.snoop_fanout::min_value              0                       # Request fanout histogram
system.tol2bus.snoop_fanout::max_value              1                       # Request fanout histogram
system.tol2bus.snoop_fanout::total              86784                       # Request fanout histogram
system.tol2bus.reqLayer0.occupancy           93942000                       # Layer occupancy (ticks)
system.tol2bus.reqLayer0.utilization              0.2                       # Layer utilization (%)
system.tol2bus.respLayer0.occupancy            531000                       # Layer occupancy (ticks)
system.tol2bus.respLayer0.utilization             0.0                       # Layer utilization (%)
system.tol2bus.respLayer1.occupancy          73369500                       # Layer occupancy (ticks)
system.tol2bus.respLayer1.utilization             0.2                       # Layer utilization (%)
system.tol3bus.snoop_filter.tot_requests        45988                       # Total number of requests made to the snoop filter.
system.tol3bus.snoop_filter.hit_single_requests        21769                       # Number of requests hitting in the snoop filter with a single holder of the requested data.
system.tol3bus.snoop_filter.hit_multi_requests            0                       # Number of requests hitting in the snoop filter with multiple (>1) holders of the requested data.
system.tol3bus.snoop_filter.tot_snoops           7970                       # Total number of snoops made to the snoop filter.
system.tol3bus.snoop_filter.hit_single_snoops         7970                       # Number of snoops hitting in the snoop filter with a single holder of the requested data.
system.tol3bus.snoop_filter.hit_multi_snoops            0                       # Number of snoops hitting in the snoop filter with multiple (>1) holders of the requested data.
system.tol3bus.pwrStateResidencyTicks::UNDEFINED  45242646000                       # Cumulative time (in ticks) in various power states
system.tol3bus.trans_dist::ReadResp             17678                       # Transaction distribution
system.tol3bus.trans_dist::WritebackDirty        27512                       # Transaction distribution
system.tol3bus.trans_dist::CleanEvict            8126                       # Transaction distribution
system.tol3bus.trans_dist::ReadExReq             6410                       # Transaction distribution
system.tol3bus.trans_dist::ReadExResp            6410                       # Transaction distribution
system.tol3bus.trans_dist::ReadSharedReq        17678                       # Transaction distribution
system.tol3bus.pkt_count_system.l2.mem_side::system.l3.cpu_side        69944                       # Packet count per connected master and slave (bytes)
system.tol3bus.pkt_size_system.l2.mem_side::system.l3.cpu_side      2924800                       # Cumulative packet size per connected master and slave (bytes)
system.tol3bus.snoops                           13870                       # Total snoops (count)
system.tol3bus.snoopTraffic                    377600                       # Total snoop traffic (bytes)
system.tol3bus.snoop_fanout::samples            38089                       # Request fanout histogram
system.tol3bus.snoop_fanout::mean            0.209247                       # Request fanout histogram
system.tol3bus.snoop_fanout::stdev           0.406776                       # Request fanout histogram
system.tol3bus.snoop_fanout::underflows             0      0.00%      0.00% # Request fanout histogram
system.tol3bus.snoop_fanout::0                  30119     79.08%     79.08% # Request fanout histogram
system.tol3bus.snoop_fanout::1                   7970     20.92%    100.00% # Request fanout histogram
system.tol3bus.snoop_fanout::overflows              0      0.00%    100.00% # Request fanout histogram
system.tol3bus.snoop_fanout::min_value              0                       # Request fanout histogram
system.tol3bus.snoop_fanout::max_value              1                       # Request fanout histogram
system.tol3bus.snoop_fanout::total              38089                       # Request fanout histogram
system.tol3bus.reqLayer0.occupancy           44671868                       # Layer occupancy (ticks)
system.tol3bus.reqLayer0.utilization              0.1                       # Layer utilization (%)
system.tol3bus.respLayer0.occupancy          36132132                       # Layer occupancy (ticks)
system.tol3bus.respLayer0.utilization             0.1                       # Layer utilization (%)

---------- End Simulation Statistics   ----------
